* Power Grid Netlist - FreePDK15
* Generated by pg_grid_netlist_gen
* Grid: 10um x 10um
* Layers: 28

.subckt BUFX12 A Y VDD VSS
.ends BUFX12

* === Metal Segments (R) ===
* Layer: MG2
R_MG2_seg_0 MG2_X_0_Y_0 MG2_X_537_Y_0 237.7m
R_MG2_seg_1 MG2_X_537_Y_0 MG2_X_1075_Y_0 237.7m
R_MG2_seg_2 MG2_X_1075_Y_0 MG2_X_1612_Y_0 237.7m
R_MG2_seg_3 MG2_X_1612_Y_0 MG2_X_2150_Y_0 237.7m
R_MG2_seg_4 MG2_X_2150_Y_0 MG2_X_2688_Y_0 237.7m
R_MG2_seg_5 MG2_X_2688_Y_0 MG2_X_3225_Y_0 237.7m
R_MG2_seg_6 MG2_X_3225_Y_0 MG2_X_3763_Y_0 237.7m
R_MG2_seg_7 MG2_X_3763_Y_0 MG2_X_4300_Y_0 237.7m
R_MG2_seg_8 MG2_X_4300_Y_0 MG2_X_4838_Y_0 237.7m
R_MG2_seg_9 MG2_X_4838_Y_0 MG2_X_5376_Y_0 237.7m
R_MG2_seg_10 MG2_X_5376_Y_0 MG2_X_5913_Y_0 237.7m
R_MG2_seg_11 MG2_X_5913_Y_0 MG2_X_6451_Y_0 237.7m
R_MG2_seg_12 MG2_X_6451_Y_0 MG2_X_6988_Y_0 237.7m
R_MG2_seg_13 MG2_X_6988_Y_0 MG2_X_7526_Y_0 237.7m
R_MG2_seg_14 MG2_X_7526_Y_0 MG2_X_8064_Y_0 237.7m
R_MG2_seg_15 MG2_X_8064_Y_0 MG2_X_8601_Y_0 237.7m
R_MG2_seg_16 MG2_X_8601_Y_0 MG2_X_9139_Y_0 237.7m
R_MG2_seg_17 MG2_X_9139_Y_0 MG2_X_9676_Y_0 237.7m
R_MG2_seg_18 MG2_X_9676_Y_0 MG2_X_10000_Y_0 142.9m
R_MG2_seg_19 MG2_X_0_Y_268 MG2_X_268_Y_268 118.8m
R_MG2_seg_20 MG2_X_268_Y_268 MG2_X_806_Y_268 237.7m
R_MG2_seg_21 MG2_X_806_Y_268 MG2_X_1344_Y_268 237.7m
R_MG2_seg_22 MG2_X_1344_Y_268 MG2_X_1881_Y_268 237.7m
R_MG2_seg_23 MG2_X_1881_Y_268 MG2_X_2419_Y_268 237.7m
R_MG2_seg_24 MG2_X_2419_Y_268 MG2_X_2956_Y_268 237.7m
R_MG2_seg_25 MG2_X_2956_Y_268 MG2_X_3494_Y_268 237.7m
R_MG2_seg_26 MG2_X_3494_Y_268 MG2_X_4032_Y_268 237.7m
R_MG2_seg_27 MG2_X_4032_Y_268 MG2_X_4569_Y_268 237.7m
R_MG2_seg_28 MG2_X_4569_Y_268 MG2_X_5107_Y_268 237.7m
R_MG2_seg_29 MG2_X_5107_Y_268 MG2_X_5644_Y_268 237.7m
R_MG2_seg_30 MG2_X_5644_Y_268 MG2_X_6182_Y_268 237.7m
R_MG2_seg_31 MG2_X_6182_Y_268 MG2_X_6720_Y_268 237.7m
R_MG2_seg_32 MG2_X_6720_Y_268 MG2_X_7257_Y_268 237.7m
R_MG2_seg_33 MG2_X_7257_Y_268 MG2_X_7795_Y_268 237.7m
R_MG2_seg_34 MG2_X_7795_Y_268 MG2_X_8332_Y_268 237.7m
R_MG2_seg_35 MG2_X_8332_Y_268 MG2_X_8870_Y_268 237.7m
R_MG2_seg_36 MG2_X_8870_Y_268 MG2_X_9408_Y_268 237.7m
R_MG2_seg_37 MG2_X_9408_Y_268 MG2_X_9945_Y_268 237.7m
R_MG2_seg_38 MG2_X_9945_Y_268 MG2_X_10000_Y_268 24.05m
R_MG2_seg_39 MG2_X_0_Y_537 MG2_X_537_Y_537 237.7m
R_MG2_seg_40 MG2_X_537_Y_537 MG2_X_1075_Y_537 237.7m
R_MG2_seg_41 MG2_X_1075_Y_537 MG2_X_1612_Y_537 237.7m
R_MG2_seg_42 MG2_X_1612_Y_537 MG2_X_2150_Y_537 237.7m
R_MG2_seg_43 MG2_X_2150_Y_537 MG2_X_2688_Y_537 237.7m
R_MG2_seg_44 MG2_X_2688_Y_537 MG2_X_3225_Y_537 237.7m
R_MG2_seg_45 MG2_X_3225_Y_537 MG2_X_3763_Y_537 237.7m
R_MG2_seg_46 MG2_X_3763_Y_537 MG2_X_4300_Y_537 237.7m
R_MG2_seg_47 MG2_X_4300_Y_537 MG2_X_4838_Y_537 237.7m
R_MG2_seg_48 MG2_X_4838_Y_537 MG2_X_5376_Y_537 237.7m
R_MG2_seg_49 MG2_X_5376_Y_537 MG2_X_5913_Y_537 237.7m
R_MG2_seg_50 MG2_X_5913_Y_537 MG2_X_6451_Y_537 237.7m
R_MG2_seg_51 MG2_X_6451_Y_537 MG2_X_6988_Y_537 237.7m
R_MG2_seg_52 MG2_X_6988_Y_537 MG2_X_7526_Y_537 237.7m
R_MG2_seg_53 MG2_X_7526_Y_537 MG2_X_8064_Y_537 237.7m
R_MG2_seg_54 MG2_X_8064_Y_537 MG2_X_8601_Y_537 237.7m
R_MG2_seg_55 MG2_X_8601_Y_537 MG2_X_9139_Y_537 237.7m
R_MG2_seg_56 MG2_X_9139_Y_537 MG2_X_9676_Y_537 237.7m
R_MG2_seg_57 MG2_X_9676_Y_537 MG2_X_10000_Y_537 142.9m
R_MG2_seg_58 MG2_X_0_Y_806 MG2_X_268_Y_806 118.8m
R_MG2_seg_59 MG2_X_268_Y_806 MG2_X_806_Y_806 237.7m
R_MG2_seg_60 MG2_X_806_Y_806 MG2_X_1344_Y_806 237.7m
R_MG2_seg_61 MG2_X_1344_Y_806 MG2_X_1881_Y_806 237.7m
R_MG2_seg_62 MG2_X_1881_Y_806 MG2_X_2419_Y_806 237.7m
R_MG2_seg_63 MG2_X_2419_Y_806 MG2_X_2956_Y_806 237.7m
R_MG2_seg_64 MG2_X_2956_Y_806 MG2_X_3494_Y_806 237.7m
R_MG2_seg_65 MG2_X_3494_Y_806 MG2_X_4032_Y_806 237.7m
R_MG2_seg_66 MG2_X_4032_Y_806 MG2_X_4569_Y_806 237.7m
R_MG2_seg_67 MG2_X_4569_Y_806 MG2_X_5107_Y_806 237.7m
R_MG2_seg_68 MG2_X_5107_Y_806 MG2_X_5644_Y_806 237.7m
R_MG2_seg_69 MG2_X_5644_Y_806 MG2_X_6182_Y_806 237.7m
R_MG2_seg_70 MG2_X_6182_Y_806 MG2_X_6720_Y_806 237.7m
R_MG2_seg_71 MG2_X_6720_Y_806 MG2_X_7257_Y_806 237.7m
R_MG2_seg_72 MG2_X_7257_Y_806 MG2_X_7795_Y_806 237.7m
R_MG2_seg_73 MG2_X_7795_Y_806 MG2_X_8332_Y_806 237.7m
R_MG2_seg_74 MG2_X_8332_Y_806 MG2_X_8870_Y_806 237.7m
R_MG2_seg_75 MG2_X_8870_Y_806 MG2_X_9408_Y_806 237.7m
R_MG2_seg_76 MG2_X_9408_Y_806 MG2_X_9945_Y_806 237.7m
R_MG2_seg_77 MG2_X_9945_Y_806 MG2_X_10000_Y_806 24.05m
R_MG2_seg_78 MG2_X_0_Y_1075 MG2_X_537_Y_1075 237.7m
R_MG2_seg_79 MG2_X_537_Y_1075 MG2_X_1075_Y_1075 237.7m
R_MG2_seg_80 MG2_X_1075_Y_1075 MG2_X_1612_Y_1075 237.7m
R_MG2_seg_81 MG2_X_1612_Y_1075 MG2_X_2150_Y_1075 237.7m
R_MG2_seg_82 MG2_X_2150_Y_1075 MG2_X_2688_Y_1075 237.7m
R_MG2_seg_83 MG2_X_2688_Y_1075 MG2_X_3225_Y_1075 237.7m
R_MG2_seg_84 MG2_X_3225_Y_1075 MG2_X_3763_Y_1075 237.7m
R_MG2_seg_85 MG2_X_3763_Y_1075 MG2_X_4300_Y_1075 237.7m
R_MG2_seg_86 MG2_X_4300_Y_1075 MG2_X_4838_Y_1075 237.7m
R_MG2_seg_87 MG2_X_4838_Y_1075 MG2_X_5376_Y_1075 237.7m
R_MG2_seg_88 MG2_X_5376_Y_1075 MG2_X_5913_Y_1075 237.7m
R_MG2_seg_89 MG2_X_5913_Y_1075 MG2_X_6451_Y_1075 237.7m
R_MG2_seg_90 MG2_X_6451_Y_1075 MG2_X_6988_Y_1075 237.7m
R_MG2_seg_91 MG2_X_6988_Y_1075 MG2_X_7526_Y_1075 237.7m
R_MG2_seg_92 MG2_X_7526_Y_1075 MG2_X_8064_Y_1075 237.7m
R_MG2_seg_93 MG2_X_8064_Y_1075 MG2_X_8601_Y_1075 237.7m
R_MG2_seg_94 MG2_X_8601_Y_1075 MG2_X_9139_Y_1075 237.7m
R_MG2_seg_95 MG2_X_9139_Y_1075 MG2_X_9676_Y_1075 237.7m
R_MG2_seg_96 MG2_X_9676_Y_1075 MG2_X_10000_Y_1075 142.9m
R_MG2_seg_97 MG2_X_0_Y_1344 MG2_X_268_Y_1344 118.8m
R_MG2_seg_98 MG2_X_268_Y_1344 MG2_X_806_Y_1344 237.7m
R_MG2_seg_99 MG2_X_806_Y_1344 MG2_X_1344_Y_1344 237.7m
R_MG2_seg_100 MG2_X_1344_Y_1344 MG2_X_1881_Y_1344 237.7m
R_MG2_seg_101 MG2_X_1881_Y_1344 MG2_X_2419_Y_1344 237.7m
R_MG2_seg_102 MG2_X_2419_Y_1344 MG2_X_2956_Y_1344 237.7m
R_MG2_seg_103 MG2_X_2956_Y_1344 MG2_X_3494_Y_1344 237.7m
R_MG2_seg_104 MG2_X_3494_Y_1344 MG2_X_4032_Y_1344 237.7m
R_MG2_seg_105 MG2_X_4032_Y_1344 MG2_X_4569_Y_1344 237.7m
R_MG2_seg_106 MG2_X_4569_Y_1344 MG2_X_5107_Y_1344 237.7m
R_MG2_seg_107 MG2_X_5107_Y_1344 MG2_X_5644_Y_1344 237.7m
R_MG2_seg_108 MG2_X_5644_Y_1344 MG2_X_6182_Y_1344 237.7m
R_MG2_seg_109 MG2_X_6182_Y_1344 MG2_X_6720_Y_1344 237.7m
R_MG2_seg_110 MG2_X_6720_Y_1344 MG2_X_7257_Y_1344 237.7m
R_MG2_seg_111 MG2_X_7257_Y_1344 MG2_X_7795_Y_1344 237.7m
R_MG2_seg_112 MG2_X_7795_Y_1344 MG2_X_8332_Y_1344 237.7m
R_MG2_seg_113 MG2_X_8332_Y_1344 MG2_X_8870_Y_1344 237.7m
R_MG2_seg_114 MG2_X_8870_Y_1344 MG2_X_9408_Y_1344 237.7m
R_MG2_seg_115 MG2_X_9408_Y_1344 MG2_X_9945_Y_1344 237.7m
R_MG2_seg_116 MG2_X_9945_Y_1344 MG2_X_10000_Y_1344 24.05m
R_MG2_seg_117 MG2_X_0_Y_1612 MG2_X_537_Y_1612 237.7m
R_MG2_seg_118 MG2_X_537_Y_1612 MG2_X_1075_Y_1612 237.7m
R_MG2_seg_119 MG2_X_1075_Y_1612 MG2_X_1612_Y_1612 237.7m
R_MG2_seg_120 MG2_X_1612_Y_1612 MG2_X_2150_Y_1612 237.7m
R_MG2_seg_121 MG2_X_2150_Y_1612 MG2_X_2688_Y_1612 237.7m
R_MG2_seg_122 MG2_X_2688_Y_1612 MG2_X_3225_Y_1612 237.7m
R_MG2_seg_123 MG2_X_3225_Y_1612 MG2_X_3763_Y_1612 237.7m
R_MG2_seg_124 MG2_X_3763_Y_1612 MG2_X_4300_Y_1612 237.7m
R_MG2_seg_125 MG2_X_4300_Y_1612 MG2_X_4838_Y_1612 237.7m
R_MG2_seg_126 MG2_X_4838_Y_1612 MG2_X_5376_Y_1612 237.7m
R_MG2_seg_127 MG2_X_5376_Y_1612 MG2_X_5913_Y_1612 237.7m
R_MG2_seg_128 MG2_X_5913_Y_1612 MG2_X_6451_Y_1612 237.7m
R_MG2_seg_129 MG2_X_6451_Y_1612 MG2_X_6988_Y_1612 237.7m
R_MG2_seg_130 MG2_X_6988_Y_1612 MG2_X_7526_Y_1612 237.7m
R_MG2_seg_131 MG2_X_7526_Y_1612 MG2_X_8064_Y_1612 237.7m
R_MG2_seg_132 MG2_X_8064_Y_1612 MG2_X_8601_Y_1612 237.7m
R_MG2_seg_133 MG2_X_8601_Y_1612 MG2_X_9139_Y_1612 237.7m
R_MG2_seg_134 MG2_X_9139_Y_1612 MG2_X_9676_Y_1612 237.7m
R_MG2_seg_135 MG2_X_9676_Y_1612 MG2_X_10000_Y_1612 142.9m
R_MG2_seg_136 MG2_X_0_Y_1881 MG2_X_268_Y_1881 118.8m
R_MG2_seg_137 MG2_X_268_Y_1881 MG2_X_806_Y_1881 237.7m
R_MG2_seg_138 MG2_X_806_Y_1881 MG2_X_1344_Y_1881 237.7m
R_MG2_seg_139 MG2_X_1344_Y_1881 MG2_X_1881_Y_1881 237.7m
R_MG2_seg_140 MG2_X_1881_Y_1881 MG2_X_2419_Y_1881 237.7m
R_MG2_seg_141 MG2_X_2419_Y_1881 MG2_X_2956_Y_1881 237.7m
R_MG2_seg_142 MG2_X_2956_Y_1881 MG2_X_3494_Y_1881 237.7m
R_MG2_seg_143 MG2_X_3494_Y_1881 MG2_X_4032_Y_1881 237.7m
R_MG2_seg_144 MG2_X_4032_Y_1881 MG2_X_4569_Y_1881 237.7m
R_MG2_seg_145 MG2_X_4569_Y_1881 MG2_X_5107_Y_1881 237.7m
R_MG2_seg_146 MG2_X_5107_Y_1881 MG2_X_5644_Y_1881 237.7m
R_MG2_seg_147 MG2_X_5644_Y_1881 MG2_X_6182_Y_1881 237.7m
R_MG2_seg_148 MG2_X_6182_Y_1881 MG2_X_6720_Y_1881 237.7m
R_MG2_seg_149 MG2_X_6720_Y_1881 MG2_X_7257_Y_1881 237.7m
R_MG2_seg_150 MG2_X_7257_Y_1881 MG2_X_7795_Y_1881 237.7m
R_MG2_seg_151 MG2_X_7795_Y_1881 MG2_X_8332_Y_1881 237.7m
R_MG2_seg_152 MG2_X_8332_Y_1881 MG2_X_8870_Y_1881 237.7m
R_MG2_seg_153 MG2_X_8870_Y_1881 MG2_X_9408_Y_1881 237.7m
R_MG2_seg_154 MG2_X_9408_Y_1881 MG2_X_9945_Y_1881 237.7m
R_MG2_seg_155 MG2_X_9945_Y_1881 MG2_X_10000_Y_1881 24.05m
R_MG2_seg_156 MG2_X_0_Y_2150 MG2_X_537_Y_2150 237.7m
R_MG2_seg_157 MG2_X_537_Y_2150 MG2_X_1075_Y_2150 237.7m
R_MG2_seg_158 MG2_X_1075_Y_2150 MG2_X_1612_Y_2150 237.7m
R_MG2_seg_159 MG2_X_1612_Y_2150 MG2_X_2150_Y_2150 237.7m
R_MG2_seg_160 MG2_X_2150_Y_2150 MG2_X_2688_Y_2150 237.7m
R_MG2_seg_161 MG2_X_2688_Y_2150 MG2_X_3225_Y_2150 237.7m
R_MG2_seg_162 MG2_X_3225_Y_2150 MG2_X_3763_Y_2150 237.7m
R_MG2_seg_163 MG2_X_3763_Y_2150 MG2_X_4300_Y_2150 237.7m
R_MG2_seg_164 MG2_X_4300_Y_2150 MG2_X_4838_Y_2150 237.7m
R_MG2_seg_165 MG2_X_4838_Y_2150 MG2_X_5376_Y_2150 237.7m
R_MG2_seg_166 MG2_X_5376_Y_2150 MG2_X_5913_Y_2150 237.7m
R_MG2_seg_167 MG2_X_5913_Y_2150 MG2_X_6451_Y_2150 237.7m
R_MG2_seg_168 MG2_X_6451_Y_2150 MG2_X_6988_Y_2150 237.7m
R_MG2_seg_169 MG2_X_6988_Y_2150 MG2_X_7526_Y_2150 237.7m
R_MG2_seg_170 MG2_X_7526_Y_2150 MG2_X_8064_Y_2150 237.7m
R_MG2_seg_171 MG2_X_8064_Y_2150 MG2_X_8601_Y_2150 237.7m
R_MG2_seg_172 MG2_X_8601_Y_2150 MG2_X_9139_Y_2150 237.7m
R_MG2_seg_173 MG2_X_9139_Y_2150 MG2_X_9676_Y_2150 237.7m
R_MG2_seg_174 MG2_X_9676_Y_2150 MG2_X_10000_Y_2150 142.9m
R_MG2_seg_175 MG2_X_0_Y_2419 MG2_X_268_Y_2419 118.8m
R_MG2_seg_176 MG2_X_268_Y_2419 MG2_X_806_Y_2419 237.7m
R_MG2_seg_177 MG2_X_806_Y_2419 MG2_X_1344_Y_2419 237.7m
R_MG2_seg_178 MG2_X_1344_Y_2419 MG2_X_1881_Y_2419 237.7m
R_MG2_seg_179 MG2_X_1881_Y_2419 MG2_X_2419_Y_2419 237.7m
R_MG2_seg_180 MG2_X_2419_Y_2419 MG2_X_2956_Y_2419 237.7m
R_MG2_seg_181 MG2_X_2956_Y_2419 MG2_X_3494_Y_2419 237.7m
R_MG2_seg_182 MG2_X_3494_Y_2419 MG2_X_4032_Y_2419 237.7m
R_MG2_seg_183 MG2_X_4032_Y_2419 MG2_X_4569_Y_2419 237.7m
R_MG2_seg_184 MG2_X_4569_Y_2419 MG2_X_5107_Y_2419 237.7m
R_MG2_seg_185 MG2_X_5107_Y_2419 MG2_X_5644_Y_2419 237.7m
R_MG2_seg_186 MG2_X_5644_Y_2419 MG2_X_6182_Y_2419 237.7m
R_MG2_seg_187 MG2_X_6182_Y_2419 MG2_X_6720_Y_2419 237.7m
R_MG2_seg_188 MG2_X_6720_Y_2419 MG2_X_7257_Y_2419 237.7m
R_MG2_seg_189 MG2_X_7257_Y_2419 MG2_X_7795_Y_2419 237.7m
R_MG2_seg_190 MG2_X_7795_Y_2419 MG2_X_8332_Y_2419 237.7m
R_MG2_seg_191 MG2_X_8332_Y_2419 MG2_X_8870_Y_2419 237.7m
R_MG2_seg_192 MG2_X_8870_Y_2419 MG2_X_9408_Y_2419 237.7m
R_MG2_seg_193 MG2_X_9408_Y_2419 MG2_X_9945_Y_2419 237.7m
R_MG2_seg_194 MG2_X_9945_Y_2419 MG2_X_10000_Y_2419 24.05m
R_MG2_seg_195 MG2_X_0_Y_2688 MG2_X_537_Y_2688 237.7m
R_MG2_seg_196 MG2_X_537_Y_2688 MG2_X_1075_Y_2688 237.7m
R_MG2_seg_197 MG2_X_1075_Y_2688 MG2_X_1612_Y_2688 237.7m
R_MG2_seg_198 MG2_X_1612_Y_2688 MG2_X_2150_Y_2688 237.7m
R_MG2_seg_199 MG2_X_2150_Y_2688 MG2_X_2688_Y_2688 237.7m
R_MG2_seg_200 MG2_X_2688_Y_2688 MG2_X_3225_Y_2688 237.7m
R_MG2_seg_201 MG2_X_3225_Y_2688 MG2_X_3763_Y_2688 237.7m
R_MG2_seg_202 MG2_X_3763_Y_2688 MG2_X_4300_Y_2688 237.7m
R_MG2_seg_203 MG2_X_4300_Y_2688 MG2_X_4838_Y_2688 237.7m
R_MG2_seg_204 MG2_X_4838_Y_2688 MG2_X_5376_Y_2688 237.7m
R_MG2_seg_205 MG2_X_5376_Y_2688 MG2_X_5913_Y_2688 237.7m
R_MG2_seg_206 MG2_X_5913_Y_2688 MG2_X_6451_Y_2688 237.7m
R_MG2_seg_207 MG2_X_6451_Y_2688 MG2_X_6988_Y_2688 237.7m
R_MG2_seg_208 MG2_X_6988_Y_2688 MG2_X_7526_Y_2688 237.7m
R_MG2_seg_209 MG2_X_7526_Y_2688 MG2_X_8064_Y_2688 237.7m
R_MG2_seg_210 MG2_X_8064_Y_2688 MG2_X_8601_Y_2688 237.7m
R_MG2_seg_211 MG2_X_8601_Y_2688 MG2_X_9139_Y_2688 237.7m
R_MG2_seg_212 MG2_X_9139_Y_2688 MG2_X_9676_Y_2688 237.7m
R_MG2_seg_213 MG2_X_9676_Y_2688 MG2_X_10000_Y_2688 142.9m
R_MG2_seg_214 MG2_X_0_Y_2956 MG2_X_268_Y_2956 118.8m
R_MG2_seg_215 MG2_X_268_Y_2956 MG2_X_806_Y_2956 237.7m
R_MG2_seg_216 MG2_X_806_Y_2956 MG2_X_1344_Y_2956 237.7m
R_MG2_seg_217 MG2_X_1344_Y_2956 MG2_X_1881_Y_2956 237.7m
R_MG2_seg_218 MG2_X_1881_Y_2956 MG2_X_2419_Y_2956 237.7m
R_MG2_seg_219 MG2_X_2419_Y_2956 MG2_X_2956_Y_2956 237.7m
R_MG2_seg_220 MG2_X_2956_Y_2956 MG2_X_3494_Y_2956 237.7m
R_MG2_seg_221 MG2_X_3494_Y_2956 MG2_X_4032_Y_2956 237.7m
R_MG2_seg_222 MG2_X_4032_Y_2956 MG2_X_4569_Y_2956 237.7m
R_MG2_seg_223 MG2_X_4569_Y_2956 MG2_X_5107_Y_2956 237.7m
R_MG2_seg_224 MG2_X_5107_Y_2956 MG2_X_5644_Y_2956 237.7m
R_MG2_seg_225 MG2_X_5644_Y_2956 MG2_X_6182_Y_2956 237.7m
R_MG2_seg_226 MG2_X_6182_Y_2956 MG2_X_6720_Y_2956 237.7m
R_MG2_seg_227 MG2_X_6720_Y_2956 MG2_X_7257_Y_2956 237.7m
R_MG2_seg_228 MG2_X_7257_Y_2956 MG2_X_7795_Y_2956 237.7m
R_MG2_seg_229 MG2_X_7795_Y_2956 MG2_X_8332_Y_2956 237.7m
R_MG2_seg_230 MG2_X_8332_Y_2956 MG2_X_8870_Y_2956 237.7m
R_MG2_seg_231 MG2_X_8870_Y_2956 MG2_X_9408_Y_2956 237.7m
R_MG2_seg_232 MG2_X_9408_Y_2956 MG2_X_9945_Y_2956 237.7m
R_MG2_seg_233 MG2_X_9945_Y_2956 MG2_X_10000_Y_2956 24.05m
R_MG2_seg_234 MG2_X_0_Y_3225 MG2_X_537_Y_3225 237.7m
R_MG2_seg_235 MG2_X_537_Y_3225 MG2_X_1075_Y_3225 237.7m
R_MG2_seg_236 MG2_X_1075_Y_3225 MG2_X_1612_Y_3225 237.7m
R_MG2_seg_237 MG2_X_1612_Y_3225 MG2_X_2150_Y_3225 237.7m
R_MG2_seg_238 MG2_X_2150_Y_3225 MG2_X_2688_Y_3225 237.7m
R_MG2_seg_239 MG2_X_2688_Y_3225 MG2_X_3225_Y_3225 237.7m
R_MG2_seg_240 MG2_X_3225_Y_3225 MG2_X_3763_Y_3225 237.7m
R_MG2_seg_241 MG2_X_3763_Y_3225 MG2_X_4300_Y_3225 237.7m
R_MG2_seg_242 MG2_X_4300_Y_3225 MG2_X_4838_Y_3225 237.7m
R_MG2_seg_243 MG2_X_4838_Y_3225 MG2_X_5376_Y_3225 237.7m
R_MG2_seg_244 MG2_X_5376_Y_3225 MG2_X_5913_Y_3225 237.7m
R_MG2_seg_245 MG2_X_5913_Y_3225 MG2_X_6451_Y_3225 237.7m
R_MG2_seg_246 MG2_X_6451_Y_3225 MG2_X_6988_Y_3225 237.7m
R_MG2_seg_247 MG2_X_6988_Y_3225 MG2_X_7526_Y_3225 237.7m
R_MG2_seg_248 MG2_X_7526_Y_3225 MG2_X_8064_Y_3225 237.7m
R_MG2_seg_249 MG2_X_8064_Y_3225 MG2_X_8601_Y_3225 237.7m
R_MG2_seg_250 MG2_X_8601_Y_3225 MG2_X_9139_Y_3225 237.7m
R_MG2_seg_251 MG2_X_9139_Y_3225 MG2_X_9676_Y_3225 237.7m
R_MG2_seg_252 MG2_X_9676_Y_3225 MG2_X_10000_Y_3225 142.9m
R_MG2_seg_253 MG2_X_0_Y_3494 MG2_X_268_Y_3494 118.8m
R_MG2_seg_254 MG2_X_268_Y_3494 MG2_X_806_Y_3494 237.7m
R_MG2_seg_255 MG2_X_806_Y_3494 MG2_X_1344_Y_3494 237.7m
R_MG2_seg_256 MG2_X_1344_Y_3494 MG2_X_1881_Y_3494 237.7m
R_MG2_seg_257 MG2_X_1881_Y_3494 MG2_X_2419_Y_3494 237.7m
R_MG2_seg_258 MG2_X_2419_Y_3494 MG2_X_2956_Y_3494 237.7m
R_MG2_seg_259 MG2_X_2956_Y_3494 MG2_X_3494_Y_3494 237.7m
R_MG2_seg_260 MG2_X_3494_Y_3494 MG2_X_4032_Y_3494 237.7m
R_MG2_seg_261 MG2_X_4032_Y_3494 MG2_X_4569_Y_3494 237.7m
R_MG2_seg_262 MG2_X_4569_Y_3494 MG2_X_5107_Y_3494 237.7m
R_MG2_seg_263 MG2_X_5107_Y_3494 MG2_X_5644_Y_3494 237.7m
R_MG2_seg_264 MG2_X_5644_Y_3494 MG2_X_6182_Y_3494 237.7m
R_MG2_seg_265 MG2_X_6182_Y_3494 MG2_X_6720_Y_3494 237.7m
R_MG2_seg_266 MG2_X_6720_Y_3494 MG2_X_7257_Y_3494 237.7m
R_MG2_seg_267 MG2_X_7257_Y_3494 MG2_X_7795_Y_3494 237.7m
R_MG2_seg_268 MG2_X_7795_Y_3494 MG2_X_8332_Y_3494 237.7m
R_MG2_seg_269 MG2_X_8332_Y_3494 MG2_X_8870_Y_3494 237.7m
R_MG2_seg_270 MG2_X_8870_Y_3494 MG2_X_9408_Y_3494 237.7m
R_MG2_seg_271 MG2_X_9408_Y_3494 MG2_X_9945_Y_3494 237.7m
R_MG2_seg_272 MG2_X_9945_Y_3494 MG2_X_10000_Y_3494 24.05m
R_MG2_seg_273 MG2_X_0_Y_3763 MG2_X_537_Y_3763 237.7m
R_MG2_seg_274 MG2_X_537_Y_3763 MG2_X_1075_Y_3763 237.7m
R_MG2_seg_275 MG2_X_1075_Y_3763 MG2_X_1612_Y_3763 237.7m
R_MG2_seg_276 MG2_X_1612_Y_3763 MG2_X_2150_Y_3763 237.7m
R_MG2_seg_277 MG2_X_2150_Y_3763 MG2_X_2688_Y_3763 237.7m
R_MG2_seg_278 MG2_X_2688_Y_3763 MG2_X_3225_Y_3763 237.7m
R_MG2_seg_279 MG2_X_3225_Y_3763 MG2_X_3763_Y_3763 237.7m
R_MG2_seg_280 MG2_X_3763_Y_3763 MG2_X_4300_Y_3763 237.7m
R_MG2_seg_281 MG2_X_4300_Y_3763 MG2_X_4838_Y_3763 237.7m
R_MG2_seg_282 MG2_X_4838_Y_3763 MG2_X_5376_Y_3763 237.7m
R_MG2_seg_283 MG2_X_5376_Y_3763 MG2_X_5913_Y_3763 237.7m
R_MG2_seg_284 MG2_X_5913_Y_3763 MG2_X_6451_Y_3763 237.7m
R_MG2_seg_285 MG2_X_6451_Y_3763 MG2_X_6988_Y_3763 237.7m
R_MG2_seg_286 MG2_X_6988_Y_3763 MG2_X_7526_Y_3763 237.7m
R_MG2_seg_287 MG2_X_7526_Y_3763 MG2_X_8064_Y_3763 237.7m
R_MG2_seg_288 MG2_X_8064_Y_3763 MG2_X_8601_Y_3763 237.7m
R_MG2_seg_289 MG2_X_8601_Y_3763 MG2_X_9139_Y_3763 237.7m
R_MG2_seg_290 MG2_X_9139_Y_3763 MG2_X_9676_Y_3763 237.7m
R_MG2_seg_291 MG2_X_9676_Y_3763 MG2_X_10000_Y_3763 142.9m
R_MG2_seg_292 MG2_X_0_Y_4032 MG2_X_268_Y_4032 118.8m
R_MG2_seg_293 MG2_X_268_Y_4032 MG2_X_806_Y_4032 237.7m
R_MG2_seg_294 MG2_X_806_Y_4032 MG2_X_1344_Y_4032 237.7m
R_MG2_seg_295 MG2_X_1344_Y_4032 MG2_X_1881_Y_4032 237.7m
R_MG2_seg_296 MG2_X_1881_Y_4032 MG2_X_2419_Y_4032 237.7m
R_MG2_seg_297 MG2_X_2419_Y_4032 MG2_X_2956_Y_4032 237.7m
R_MG2_seg_298 MG2_X_2956_Y_4032 MG2_X_3494_Y_4032 237.7m
R_MG2_seg_299 MG2_X_3494_Y_4032 MG2_X_4032_Y_4032 237.7m
R_MG2_seg_300 MG2_X_4032_Y_4032 MG2_X_4569_Y_4032 237.7m
R_MG2_seg_301 MG2_X_4569_Y_4032 MG2_X_5107_Y_4032 237.7m
R_MG2_seg_302 MG2_X_5107_Y_4032 MG2_X_5644_Y_4032 237.7m
R_MG2_seg_303 MG2_X_5644_Y_4032 MG2_X_6182_Y_4032 237.7m
R_MG2_seg_304 MG2_X_6182_Y_4032 MG2_X_6720_Y_4032 237.7m
R_MG2_seg_305 MG2_X_6720_Y_4032 MG2_X_7257_Y_4032 237.7m
R_MG2_seg_306 MG2_X_7257_Y_4032 MG2_X_7795_Y_4032 237.7m
R_MG2_seg_307 MG2_X_7795_Y_4032 MG2_X_8332_Y_4032 237.7m
R_MG2_seg_308 MG2_X_8332_Y_4032 MG2_X_8870_Y_4032 237.7m
R_MG2_seg_309 MG2_X_8870_Y_4032 MG2_X_9408_Y_4032 237.7m
R_MG2_seg_310 MG2_X_9408_Y_4032 MG2_X_9945_Y_4032 237.7m
R_MG2_seg_311 MG2_X_9945_Y_4032 MG2_X_10000_Y_4032 24.05m
R_MG2_seg_312 MG2_X_0_Y_4300 MG2_X_537_Y_4300 237.7m
R_MG2_seg_313 MG2_X_537_Y_4300 MG2_X_1075_Y_4300 237.7m
R_MG2_seg_314 MG2_X_1075_Y_4300 MG2_X_1612_Y_4300 237.7m
R_MG2_seg_315 MG2_X_1612_Y_4300 MG2_X_2150_Y_4300 237.7m
R_MG2_seg_316 MG2_X_2150_Y_4300 MG2_X_2688_Y_4300 237.7m
R_MG2_seg_317 MG2_X_2688_Y_4300 MG2_X_3225_Y_4300 237.7m
R_MG2_seg_318 MG2_X_3225_Y_4300 MG2_X_3763_Y_4300 237.7m
R_MG2_seg_319 MG2_X_3763_Y_4300 MG2_X_4300_Y_4300 237.7m
R_MG2_seg_320 MG2_X_4300_Y_4300 MG2_X_4838_Y_4300 237.7m
R_MG2_seg_321 MG2_X_4838_Y_4300 MG2_X_5376_Y_4300 237.7m
R_MG2_seg_322 MG2_X_5376_Y_4300 MG2_X_5913_Y_4300 237.7m
R_MG2_seg_323 MG2_X_5913_Y_4300 MG2_X_6451_Y_4300 237.7m
R_MG2_seg_324 MG2_X_6451_Y_4300 MG2_X_6988_Y_4300 237.7m
R_MG2_seg_325 MG2_X_6988_Y_4300 MG2_X_7526_Y_4300 237.7m
R_MG2_seg_326 MG2_X_7526_Y_4300 MG2_X_8064_Y_4300 237.7m
R_MG2_seg_327 MG2_X_8064_Y_4300 MG2_X_8601_Y_4300 237.7m
R_MG2_seg_328 MG2_X_8601_Y_4300 MG2_X_9139_Y_4300 237.7m
R_MG2_seg_329 MG2_X_9139_Y_4300 MG2_X_9676_Y_4300 237.7m
R_MG2_seg_330 MG2_X_9676_Y_4300 MG2_X_10000_Y_4300 142.9m
R_MG2_seg_331 MG2_X_0_Y_4569 MG2_X_268_Y_4569 118.8m
R_MG2_seg_332 MG2_X_268_Y_4569 MG2_X_806_Y_4569 237.7m
R_MG2_seg_333 MG2_X_806_Y_4569 MG2_X_1344_Y_4569 237.7m
R_MG2_seg_334 MG2_X_1344_Y_4569 MG2_X_1881_Y_4569 237.7m
R_MG2_seg_335 MG2_X_1881_Y_4569 MG2_X_2419_Y_4569 237.7m
R_MG2_seg_336 MG2_X_2419_Y_4569 MG2_X_2956_Y_4569 237.7m
R_MG2_seg_337 MG2_X_2956_Y_4569 MG2_X_3494_Y_4569 237.7m
R_MG2_seg_338 MG2_X_3494_Y_4569 MG2_X_4032_Y_4569 237.7m
R_MG2_seg_339 MG2_X_4032_Y_4569 MG2_X_4569_Y_4569 237.7m
R_MG2_seg_340 MG2_X_4569_Y_4569 MG2_X_5107_Y_4569 237.7m
R_MG2_seg_341 MG2_X_5107_Y_4569 MG2_X_5644_Y_4569 237.7m
R_MG2_seg_342 MG2_X_5644_Y_4569 MG2_X_6182_Y_4569 237.7m
R_MG2_seg_343 MG2_X_6182_Y_4569 MG2_X_6720_Y_4569 237.7m
R_MG2_seg_344 MG2_X_6720_Y_4569 MG2_X_7257_Y_4569 237.7m
R_MG2_seg_345 MG2_X_7257_Y_4569 MG2_X_7795_Y_4569 237.7m
R_MG2_seg_346 MG2_X_7795_Y_4569 MG2_X_8332_Y_4569 237.7m
R_MG2_seg_347 MG2_X_8332_Y_4569 MG2_X_8870_Y_4569 237.7m
R_MG2_seg_348 MG2_X_8870_Y_4569 MG2_X_9408_Y_4569 237.7m
R_MG2_seg_349 MG2_X_9408_Y_4569 MG2_X_9945_Y_4569 237.7m
R_MG2_seg_350 MG2_X_9945_Y_4569 MG2_X_10000_Y_4569 24.05m
R_MG2_seg_351 MG2_X_0_Y_4838 MG2_X_537_Y_4838 237.7m
R_MG2_seg_352 MG2_X_537_Y_4838 MG2_X_1075_Y_4838 237.7m
R_MG2_seg_353 MG2_X_1075_Y_4838 MG2_X_1612_Y_4838 237.7m
R_MG2_seg_354 MG2_X_1612_Y_4838 MG2_X_2150_Y_4838 237.7m
R_MG2_seg_355 MG2_X_2150_Y_4838 MG2_X_2688_Y_4838 237.7m
R_MG2_seg_356 MG2_X_2688_Y_4838 MG2_X_3225_Y_4838 237.7m
R_MG2_seg_357 MG2_X_3225_Y_4838 MG2_X_3763_Y_4838 237.7m
R_MG2_seg_358 MG2_X_3763_Y_4838 MG2_X_4300_Y_4838 237.7m
R_MG2_seg_359 MG2_X_4300_Y_4838 MG2_X_4838_Y_4838 237.7m
R_MG2_seg_360 MG2_X_4838_Y_4838 MG2_X_5376_Y_4838 237.7m
R_MG2_seg_361 MG2_X_5376_Y_4838 MG2_X_5913_Y_4838 237.7m
R_MG2_seg_362 MG2_X_5913_Y_4838 MG2_X_6451_Y_4838 237.7m
R_MG2_seg_363 MG2_X_6451_Y_4838 MG2_X_6988_Y_4838 237.7m
R_MG2_seg_364 MG2_X_6988_Y_4838 MG2_X_7526_Y_4838 237.7m
R_MG2_seg_365 MG2_X_7526_Y_4838 MG2_X_8064_Y_4838 237.7m
R_MG2_seg_366 MG2_X_8064_Y_4838 MG2_X_8601_Y_4838 237.7m
R_MG2_seg_367 MG2_X_8601_Y_4838 MG2_X_9139_Y_4838 237.7m
R_MG2_seg_368 MG2_X_9139_Y_4838 MG2_X_9676_Y_4838 237.7m
R_MG2_seg_369 MG2_X_9676_Y_4838 MG2_X_10000_Y_4838 142.9m
R_MG2_seg_370 MG2_X_0_Y_5107 MG2_X_268_Y_5107 118.8m
R_MG2_seg_371 MG2_X_268_Y_5107 MG2_X_806_Y_5107 237.7m
R_MG2_seg_372 MG2_X_806_Y_5107 MG2_X_1344_Y_5107 237.7m
R_MG2_seg_373 MG2_X_1344_Y_5107 MG2_X_1881_Y_5107 237.7m
R_MG2_seg_374 MG2_X_1881_Y_5107 MG2_X_2419_Y_5107 237.7m
R_MG2_seg_375 MG2_X_2419_Y_5107 MG2_X_2956_Y_5107 237.7m
R_MG2_seg_376 MG2_X_2956_Y_5107 MG2_X_3494_Y_5107 237.7m
R_MG2_seg_377 MG2_X_3494_Y_5107 MG2_X_4032_Y_5107 237.7m
R_MG2_seg_378 MG2_X_4032_Y_5107 MG2_X_4569_Y_5107 237.7m
R_MG2_seg_379 MG2_X_4569_Y_5107 MG2_X_5107_Y_5107 237.7m
R_MG2_seg_380 MG2_X_5107_Y_5107 MG2_X_5644_Y_5107 237.7m
R_MG2_seg_381 MG2_X_5644_Y_5107 MG2_X_6182_Y_5107 237.7m
R_MG2_seg_382 MG2_X_6182_Y_5107 MG2_X_6720_Y_5107 237.7m
R_MG2_seg_383 MG2_X_6720_Y_5107 MG2_X_7257_Y_5107 237.7m
R_MG2_seg_384 MG2_X_7257_Y_5107 MG2_X_7795_Y_5107 237.7m
R_MG2_seg_385 MG2_X_7795_Y_5107 MG2_X_8332_Y_5107 237.7m
R_MG2_seg_386 MG2_X_8332_Y_5107 MG2_X_8870_Y_5107 237.7m
R_MG2_seg_387 MG2_X_8870_Y_5107 MG2_X_9408_Y_5107 237.7m
R_MG2_seg_388 MG2_X_9408_Y_5107 MG2_X_9945_Y_5107 237.7m
R_MG2_seg_389 MG2_X_9945_Y_5107 MG2_X_10000_Y_5107 24.05m
R_MG2_seg_390 MG2_X_0_Y_5376 MG2_X_537_Y_5376 237.7m
R_MG2_seg_391 MG2_X_537_Y_5376 MG2_X_1075_Y_5376 237.7m
R_MG2_seg_392 MG2_X_1075_Y_5376 MG2_X_1612_Y_5376 237.7m
R_MG2_seg_393 MG2_X_1612_Y_5376 MG2_X_2150_Y_5376 237.7m
R_MG2_seg_394 MG2_X_2150_Y_5376 MG2_X_2688_Y_5376 237.7m
R_MG2_seg_395 MG2_X_2688_Y_5376 MG2_X_3225_Y_5376 237.7m
R_MG2_seg_396 MG2_X_3225_Y_5376 MG2_X_3763_Y_5376 237.7m
R_MG2_seg_397 MG2_X_3763_Y_5376 MG2_X_4300_Y_5376 237.7m
R_MG2_seg_398 MG2_X_4300_Y_5376 MG2_X_4838_Y_5376 237.7m
R_MG2_seg_399 MG2_X_4838_Y_5376 MG2_X_5376_Y_5376 237.7m
R_MG2_seg_400 MG2_X_5376_Y_5376 MG2_X_5913_Y_5376 237.7m
R_MG2_seg_401 MG2_X_5913_Y_5376 MG2_X_6451_Y_5376 237.7m
R_MG2_seg_402 MG2_X_6451_Y_5376 MG2_X_6988_Y_5376 237.7m
R_MG2_seg_403 MG2_X_6988_Y_5376 MG2_X_7526_Y_5376 237.7m
R_MG2_seg_404 MG2_X_7526_Y_5376 MG2_X_8064_Y_5376 237.7m
R_MG2_seg_405 MG2_X_8064_Y_5376 MG2_X_8601_Y_5376 237.7m
R_MG2_seg_406 MG2_X_8601_Y_5376 MG2_X_9139_Y_5376 237.7m
R_MG2_seg_407 MG2_X_9139_Y_5376 MG2_X_9676_Y_5376 237.7m
R_MG2_seg_408 MG2_X_9676_Y_5376 MG2_X_10000_Y_5376 142.9m
R_MG2_seg_409 MG2_X_0_Y_5644 MG2_X_268_Y_5644 118.8m
R_MG2_seg_410 MG2_X_268_Y_5644 MG2_X_806_Y_5644 237.7m
R_MG2_seg_411 MG2_X_806_Y_5644 MG2_X_1344_Y_5644 237.7m
R_MG2_seg_412 MG2_X_1344_Y_5644 MG2_X_1881_Y_5644 237.7m
R_MG2_seg_413 MG2_X_1881_Y_5644 MG2_X_2419_Y_5644 237.7m
R_MG2_seg_414 MG2_X_2419_Y_5644 MG2_X_2956_Y_5644 237.7m
R_MG2_seg_415 MG2_X_2956_Y_5644 MG2_X_3494_Y_5644 237.7m
R_MG2_seg_416 MG2_X_3494_Y_5644 MG2_X_4032_Y_5644 237.7m
R_MG2_seg_417 MG2_X_4032_Y_5644 MG2_X_4569_Y_5644 237.7m
R_MG2_seg_418 MG2_X_4569_Y_5644 MG2_X_5107_Y_5644 237.7m
R_MG2_seg_419 MG2_X_5107_Y_5644 MG2_X_5644_Y_5644 237.7m
R_MG2_seg_420 MG2_X_5644_Y_5644 MG2_X_6182_Y_5644 237.7m
R_MG2_seg_421 MG2_X_6182_Y_5644 MG2_X_6720_Y_5644 237.7m
R_MG2_seg_422 MG2_X_6720_Y_5644 MG2_X_7257_Y_5644 237.7m
R_MG2_seg_423 MG2_X_7257_Y_5644 MG2_X_7795_Y_5644 237.7m
R_MG2_seg_424 MG2_X_7795_Y_5644 MG2_X_8332_Y_5644 237.7m
R_MG2_seg_425 MG2_X_8332_Y_5644 MG2_X_8870_Y_5644 237.7m
R_MG2_seg_426 MG2_X_8870_Y_5644 MG2_X_9408_Y_5644 237.7m
R_MG2_seg_427 MG2_X_9408_Y_5644 MG2_X_9945_Y_5644 237.7m
R_MG2_seg_428 MG2_X_9945_Y_5644 MG2_X_10000_Y_5644 24.05m
R_MG2_seg_429 MG2_X_0_Y_5913 MG2_X_537_Y_5913 237.7m
R_MG2_seg_430 MG2_X_537_Y_5913 MG2_X_1075_Y_5913 237.7m
R_MG2_seg_431 MG2_X_1075_Y_5913 MG2_X_1612_Y_5913 237.7m
R_MG2_seg_432 MG2_X_1612_Y_5913 MG2_X_2150_Y_5913 237.7m
R_MG2_seg_433 MG2_X_2150_Y_5913 MG2_X_2688_Y_5913 237.7m
R_MG2_seg_434 MG2_X_2688_Y_5913 MG2_X_3225_Y_5913 237.7m
R_MG2_seg_435 MG2_X_3225_Y_5913 MG2_X_3763_Y_5913 237.7m
R_MG2_seg_436 MG2_X_3763_Y_5913 MG2_X_4300_Y_5913 237.7m
R_MG2_seg_437 MG2_X_4300_Y_5913 MG2_X_4838_Y_5913 237.7m
R_MG2_seg_438 MG2_X_4838_Y_5913 MG2_X_5376_Y_5913 237.7m
R_MG2_seg_439 MG2_X_5376_Y_5913 MG2_X_5913_Y_5913 237.7m
R_MG2_seg_440 MG2_X_5913_Y_5913 MG2_X_6451_Y_5913 237.7m
R_MG2_seg_441 MG2_X_6451_Y_5913 MG2_X_6988_Y_5913 237.7m
R_MG2_seg_442 MG2_X_6988_Y_5913 MG2_X_7526_Y_5913 237.7m
R_MG2_seg_443 MG2_X_7526_Y_5913 MG2_X_8064_Y_5913 237.7m
R_MG2_seg_444 MG2_X_8064_Y_5913 MG2_X_8601_Y_5913 237.7m
R_MG2_seg_445 MG2_X_8601_Y_5913 MG2_X_9139_Y_5913 237.7m
R_MG2_seg_446 MG2_X_9139_Y_5913 MG2_X_9676_Y_5913 237.7m
R_MG2_seg_447 MG2_X_9676_Y_5913 MG2_X_10000_Y_5913 142.9m
R_MG2_seg_448 MG2_X_0_Y_6182 MG2_X_268_Y_6182 118.8m
R_MG2_seg_449 MG2_X_268_Y_6182 MG2_X_806_Y_6182 237.7m
R_MG2_seg_450 MG2_X_806_Y_6182 MG2_X_1344_Y_6182 237.7m
R_MG2_seg_451 MG2_X_1344_Y_6182 MG2_X_1881_Y_6182 237.7m
R_MG2_seg_452 MG2_X_1881_Y_6182 MG2_X_2419_Y_6182 237.7m
R_MG2_seg_453 MG2_X_2419_Y_6182 MG2_X_2956_Y_6182 237.7m
R_MG2_seg_454 MG2_X_2956_Y_6182 MG2_X_3494_Y_6182 237.7m
R_MG2_seg_455 MG2_X_3494_Y_6182 MG2_X_4032_Y_6182 237.7m
R_MG2_seg_456 MG2_X_4032_Y_6182 MG2_X_4569_Y_6182 237.7m
R_MG2_seg_457 MG2_X_4569_Y_6182 MG2_X_5107_Y_6182 237.7m
R_MG2_seg_458 MG2_X_5107_Y_6182 MG2_X_5644_Y_6182 237.7m
R_MG2_seg_459 MG2_X_5644_Y_6182 MG2_X_6182_Y_6182 237.7m
R_MG2_seg_460 MG2_X_6182_Y_6182 MG2_X_6720_Y_6182 237.7m
R_MG2_seg_461 MG2_X_6720_Y_6182 MG2_X_7257_Y_6182 237.7m
R_MG2_seg_462 MG2_X_7257_Y_6182 MG2_X_7795_Y_6182 237.7m
R_MG2_seg_463 MG2_X_7795_Y_6182 MG2_X_8332_Y_6182 237.7m
R_MG2_seg_464 MG2_X_8332_Y_6182 MG2_X_8870_Y_6182 237.7m
R_MG2_seg_465 MG2_X_8870_Y_6182 MG2_X_9408_Y_6182 237.7m
R_MG2_seg_466 MG2_X_9408_Y_6182 MG2_X_9945_Y_6182 237.7m
R_MG2_seg_467 MG2_X_9945_Y_6182 MG2_X_10000_Y_6182 24.05m
R_MG2_seg_468 MG2_X_0_Y_6451 MG2_X_537_Y_6451 237.7m
R_MG2_seg_469 MG2_X_537_Y_6451 MG2_X_1075_Y_6451 237.7m
R_MG2_seg_470 MG2_X_1075_Y_6451 MG2_X_1612_Y_6451 237.7m
R_MG2_seg_471 MG2_X_1612_Y_6451 MG2_X_2150_Y_6451 237.7m
R_MG2_seg_472 MG2_X_2150_Y_6451 MG2_X_2688_Y_6451 237.7m
R_MG2_seg_473 MG2_X_2688_Y_6451 MG2_X_3225_Y_6451 237.7m
R_MG2_seg_474 MG2_X_3225_Y_6451 MG2_X_3763_Y_6451 237.7m
R_MG2_seg_475 MG2_X_3763_Y_6451 MG2_X_4300_Y_6451 237.7m
R_MG2_seg_476 MG2_X_4300_Y_6451 MG2_X_4838_Y_6451 237.7m
R_MG2_seg_477 MG2_X_4838_Y_6451 MG2_X_5376_Y_6451 237.7m
R_MG2_seg_478 MG2_X_5376_Y_6451 MG2_X_5913_Y_6451 237.7m
R_MG2_seg_479 MG2_X_5913_Y_6451 MG2_X_6451_Y_6451 237.7m
R_MG2_seg_480 MG2_X_6451_Y_6451 MG2_X_6988_Y_6451 237.7m
R_MG2_seg_481 MG2_X_6988_Y_6451 MG2_X_7526_Y_6451 237.7m
R_MG2_seg_482 MG2_X_7526_Y_6451 MG2_X_8064_Y_6451 237.7m
R_MG2_seg_483 MG2_X_8064_Y_6451 MG2_X_8601_Y_6451 237.7m
R_MG2_seg_484 MG2_X_8601_Y_6451 MG2_X_9139_Y_6451 237.7m
R_MG2_seg_485 MG2_X_9139_Y_6451 MG2_X_9676_Y_6451 237.7m
R_MG2_seg_486 MG2_X_9676_Y_6451 MG2_X_10000_Y_6451 142.9m
R_MG2_seg_487 MG2_X_0_Y_6720 MG2_X_268_Y_6720 118.8m
R_MG2_seg_488 MG2_X_268_Y_6720 MG2_X_806_Y_6720 237.7m
R_MG2_seg_489 MG2_X_806_Y_6720 MG2_X_1344_Y_6720 237.7m
R_MG2_seg_490 MG2_X_1344_Y_6720 MG2_X_1881_Y_6720 237.7m
R_MG2_seg_491 MG2_X_1881_Y_6720 MG2_X_2419_Y_6720 237.7m
R_MG2_seg_492 MG2_X_2419_Y_6720 MG2_X_2956_Y_6720 237.7m
R_MG2_seg_493 MG2_X_2956_Y_6720 MG2_X_3494_Y_6720 237.7m
R_MG2_seg_494 MG2_X_3494_Y_6720 MG2_X_4032_Y_6720 237.7m
R_MG2_seg_495 MG2_X_4032_Y_6720 MG2_X_4569_Y_6720 237.7m
R_MG2_seg_496 MG2_X_4569_Y_6720 MG2_X_5107_Y_6720 237.7m
R_MG2_seg_497 MG2_X_5107_Y_6720 MG2_X_5644_Y_6720 237.7m
R_MG2_seg_498 MG2_X_5644_Y_6720 MG2_X_6182_Y_6720 237.7m
R_MG2_seg_499 MG2_X_6182_Y_6720 MG2_X_6720_Y_6720 237.7m
R_MG2_seg_500 MG2_X_6720_Y_6720 MG2_X_7257_Y_6720 237.7m
R_MG2_seg_501 MG2_X_7257_Y_6720 MG2_X_7795_Y_6720 237.7m
R_MG2_seg_502 MG2_X_7795_Y_6720 MG2_X_8332_Y_6720 237.7m
R_MG2_seg_503 MG2_X_8332_Y_6720 MG2_X_8870_Y_6720 237.7m
R_MG2_seg_504 MG2_X_8870_Y_6720 MG2_X_9408_Y_6720 237.7m
R_MG2_seg_505 MG2_X_9408_Y_6720 MG2_X_9945_Y_6720 237.7m
R_MG2_seg_506 MG2_X_9945_Y_6720 MG2_X_10000_Y_6720 24.05m
R_MG2_seg_507 MG2_X_0_Y_6988 MG2_X_537_Y_6988 237.7m
R_MG2_seg_508 MG2_X_537_Y_6988 MG2_X_1075_Y_6988 237.7m
R_MG2_seg_509 MG2_X_1075_Y_6988 MG2_X_1612_Y_6988 237.7m
R_MG2_seg_510 MG2_X_1612_Y_6988 MG2_X_2150_Y_6988 237.7m
R_MG2_seg_511 MG2_X_2150_Y_6988 MG2_X_2688_Y_6988 237.7m
R_MG2_seg_512 MG2_X_2688_Y_6988 MG2_X_3225_Y_6988 237.7m
R_MG2_seg_513 MG2_X_3225_Y_6988 MG2_X_3763_Y_6988 237.7m
R_MG2_seg_514 MG2_X_3763_Y_6988 MG2_X_4300_Y_6988 237.7m
R_MG2_seg_515 MG2_X_4300_Y_6988 MG2_X_4838_Y_6988 237.7m
R_MG2_seg_516 MG2_X_4838_Y_6988 MG2_X_5376_Y_6988 237.7m
R_MG2_seg_517 MG2_X_5376_Y_6988 MG2_X_5913_Y_6988 237.7m
R_MG2_seg_518 MG2_X_5913_Y_6988 MG2_X_6451_Y_6988 237.7m
R_MG2_seg_519 MG2_X_6451_Y_6988 MG2_X_6988_Y_6988 237.7m
R_MG2_seg_520 MG2_X_6988_Y_6988 MG2_X_7526_Y_6988 237.7m
R_MG2_seg_521 MG2_X_7526_Y_6988 MG2_X_8064_Y_6988 237.7m
R_MG2_seg_522 MG2_X_8064_Y_6988 MG2_X_8601_Y_6988 237.7m
R_MG2_seg_523 MG2_X_8601_Y_6988 MG2_X_9139_Y_6988 237.7m
R_MG2_seg_524 MG2_X_9139_Y_6988 MG2_X_9676_Y_6988 237.7m
R_MG2_seg_525 MG2_X_9676_Y_6988 MG2_X_10000_Y_6988 142.9m
R_MG2_seg_526 MG2_X_0_Y_7257 MG2_X_268_Y_7257 118.8m
R_MG2_seg_527 MG2_X_268_Y_7257 MG2_X_806_Y_7257 237.7m
R_MG2_seg_528 MG2_X_806_Y_7257 MG2_X_1344_Y_7257 237.7m
R_MG2_seg_529 MG2_X_1344_Y_7257 MG2_X_1881_Y_7257 237.7m
R_MG2_seg_530 MG2_X_1881_Y_7257 MG2_X_2419_Y_7257 237.7m